Input Parameters:
   integrator           = md
   nsteps               = 5000
   init-step            = 0
   cutoff-scheme        = Group
   ns_type              = Grid
   nstlist              = 5
   ndelta               = 2
   nstcomm              = 1000
   comm-mode            = Linear
   nstlog               = 500
   nstxout              = 0
   nstvout              = 0
   nstfout              = 0
   nstcalcenergy        = 100
   nstenergy            = 300
   nstxtcout            = 500
   init-t               = 0
   delta-t              = 0.002
   xtcprec              = 1000
   fourierspacing       = 0.12
   nkx                  = 64
   nky                  = 64
   nkz                  = 64
   pme-order            = 4
   ewald-rtol           = 1e-05
   ewald-geometry       = 0
   epsilon-surface      = 0
   optimize-fft         = TRUE
   ePBC                 = xyz
   bPeriodicMols        = FALSE
   bContinuation        = FALSE
   bShakeSOR            = FALSE
   etc                  = Berendsen
   bPrintNHChains       = FALSE
   nsttcouple           = 5
   epc                  = Berendsen
   epctype              = Isotropic
   nstpcouple           = 5
   tau-p                = 0.5
   ref-p (3x3):
      ref-p[    0]={ 1.00000e+00,  0.00000e+00,  0.00000e+00}
      ref-p[    1]={ 0.00000e+00,  1.00000e+00,  0.00000e+00}
      ref-p[    2]={ 0.00000e+00,  0.00000e+00,  1.00000e+00}
   compress (3x3):
      compress[    0]={ 4.50000e-05,  0.00000e+00,  0.00000e+00}
      compress[    1]={ 0.00000e+00,  4.50000e-05,  0.00000e+00}
      compress[    2]={ 0.00000e+00,  0.00000e+00,  4.50000e-05}
   refcoord-scaling     = COM
   posres-com (3):
      posres-com[0]= 4.99010e-01
      posres-com[1]= 4.99925e-01
      posres-com[2]= 4.99738e-01
   posres-comB (3):
      posres-comB[0]= 0.00000e+00
      posres-comB[1]= 0.00000e+00
      posres-comB[2]= 0.00000e+00
   verlet-buffer-drift  = 0.005
   rlist                = 1.4
   rlistlong            = 1.4
   nstcalclr            = 0
   rtpi                 = 0.05
   coulombtype          = PME-Switch
   coulomb-modifier     = None
   rcoulomb-switch      = 0
   rcoulomb             = 1.2
   vdwtype              = Switch
   vdw-modifier         = None
   rvdw-switch          = 1
   rvdw                 = 1.2
   epsilon-r            = 1
   epsilon-rf           = 1
   tabext               = 1
   implicit-solvent     = No
   gb-algorithm         = Still
   gb-epsilon-solvent   = 80
   nstgbradii           = 1
   rgbradii             = 1
   gb-saltconc          = 0
   gb-obc-alpha         = 1
   gb-obc-beta          = 0.8
   gb-obc-gamma         = 4.85
   gb-dielectric-offset = 0.009
   sa-algorithm         = Ace-approximation
   sa-surface-tension   = 2.05016
   DispCorr             = EnerPres
   bSimTemp             = FALSE
   free-energy          = no
   nwall                = 0
   wall-type            = 9-3
   wall-atomtype[0]     = -1
   wall-atomtype[1]     = -1
   wall-density[0]      = 0
   wall-density[1]      = 0
   wall-ewald-zfac      = 3
   pull                 = no
   rotation             = FALSE
   disre                = No
   disre-weighting      = Conservative
   disre-mixed          = FALSE
   dr-fc                = 1000
   dr-tau               = 0
   nstdisreout          = 100
   orires-fc            = 0
   orires-tau           = 0
   nstorireout          = 100
   dihre-fc             = 0
   em-stepsize          = 0.01
   em-tol               = 10
   niter                = 20
   fc-stepsize          = 0
   nstcgsteep           = 1000
   nbfgscorr            = 10
   ConstAlg             = Lincs
   shake-tol            = 0.0001
   lincs-order          = 4
   lincs-warnangle      = 30
   lincs-iter           = 1
   bd-fric              = 0
   ld-seed              = 1993
   cos-accel            = 0
   deform (3x3):
      deform[    0]={ 0.00000e+00,  0.00000e+00,  0.00000e+00}
      deform[    1]={ 0.00000e+00,  0.00000e+00,  0.00000e+00}
      deform[    2]={ 0.00000e+00,  0.00000e+00,  0.00000e+00}
   adress               = FALSE
   userint1             = 0
   userint2             = 0
   userint3             = 0
   userint4             = 0
   userreal1            = 0
   userreal2            = 0
   userreal3            = 0
   userreal4            = 0
grpopts:
   nrdf:     8337.55     46761.5
   ref-t:         300         300
   tau-t:         0.1         0.1
anneal:          No          No
ann-npoints:           0           0
   acc:	           0           0           0
   nfreeze:           N           N           N
   energygrp-flags[  0]: 0
   efield-x:
      n = 0
   efield-xt:
      n = 0
   efield-y:
      n = 0
   efield-yt:
      n = 0
   efield-z:
      n = 0
   efield-zt:
      n = 0
   bQMMM                = FALSE
   QMconstraints        = 0
   QMMMscheme           = 0
   scalefactor          = 1
qm-opts:
   ngQM                 = 0

Initializing Domain Decomposition on 32 nodes
Dynamic load balancing: auto
Will sort the charge groups at every domain (re)decomposition
Initial maximum inter charge-group distances:
    two-body bonded interactions: 0.425 nm, LJ-14, atoms 788 796
  multi-body bonded interactions: 0.483 nm, CMAP Dih., atoms 2961 2977
Minimum cell size due to bonded interactions: 0.532 nm
Maximum distance for 5 constraints, at 120 deg. angles, all-trans: 0.222 nm
Estimated maximum distance required for P-LINCS: 0.222 nm
Guess for relative PME load: 0.11
Will use 24 particle-particle and 8 PME only nodes
This is a guess, check the performance at the end of the log file
Using 8 separate PME nodes, as guessed by mdrun
Scaling the initial minimum size with 1/0.8 (option -dds) = 1.25
Optimizing the DD grid for 24 cells with a minimum initial size of 0.665 nm
The maximum allowed number of cells is: X 8 Y 8 Z 7
Domain decomposition grid 8 x 3 x 1, separate PME nodes 8
PME domain decomposition: 8 x 1 x 1
Interleaving PP and PME nodes
This is a particle-particle only node

Domain decomposition nodeid 0, coordinates 0 0 0

Using 32 MPI threads

Detecting CPU-specific acceleration.
Present hardware specification:
Vendor: GenuineIntel
Brand:  Intel(R) Xeon(R) CPU E5-2630 v3 @ 2.40GHz
Family:  6  Model: 63  Stepping:  2
Features: apic avx avx2 clfsh cmov cx8 cx16 f16c fma htt lahf_lm mmx msr nonstop_tsc pcid pclmuldq pdcm pdpe1gb popcnt pse rdrnd rdtscp sse2 sse3 sse4.1 sse4.2 ssse3 tdt x2apic
Acceleration most likely to fit this hardware: AVX_256
Acceleration selected at GROMACS compile time: AVX_256

1 GPU detected:
  #0: NVIDIA GeForce GTX 980, compute cap.: 5.2, ECC:  no, stat: compatible

1 compatible GPU detected in the system, but none will be used.
Consider trying GPU acceleration with the Verlet scheme!

Table routines are used for coulomb: TRUE
Table routines are used for vdw:     TRUE
Will do PME sum in reciprocal space.

Will do ordinary reciprocal space Ewald sum.
Using a Gaussian width (1/beta) of 0.384195 nm for Ewald
Using shifted Lennard-Jones, switch between 1 and 1.2 nm
Cut-off's:   NS: 1.4   Coulomb: 1.2   LJ: 1.2
Long Range LJ corr.: <C6> 3.3596e-04
System total charge: 0.000
Generated table with 1200 data points for Ewald-Switch.
Tabscale = 500 points/nm
Generated table with 1200 data points for LJ6Switch.
Tabscale = 500 points/nm
Generated table with 1200 data points for LJ12Switch.
Tabscale = 500 points/nm
Generated table with 1200 data points for 1-4 COUL.
Tabscale = 500 points/nm
Generated table with 1200 data points for 1-4 LJ6.
Tabscale = 500 points/nm
Generated table with 1200 data points for 1-4 LJ12.
Tabscale = 500 points/nm

Enabling SPC-like water optimization for 7776 molecules.

Potential shift: LJ r^-12: 0.000 r^-6 0.000, Ewald 0.000e+00
Initialized non-bonded Ewald correction tables, spacing: 7.23e-04 size: 3322

Removing pbc first time
Pinning threads with an auto-selected logical core stride of 1

Initializing Parallel LINear Constraint Solver

The number of constraints is 1685
There are inter charge-group constraints,
will communicate selected coordinates each lincs iteration

Linking all bonded interactions to atoms
There are 18308 inter charge-group exclusions,
will use an extra communication step for exclusion forces for PME-Switch

The initial number of communication pulses is: X 2 Y 1
The initial domain decomposition cell size is: X 0.74 nm Y 1.97 nm

The maximum allowed distance for charge groups involved in interactions is:
                 non-bonded interactions           1.400 nm
(the following are initial values, they could change due to box deformation)
            two-body bonded interactions  (-rdd)   1.400 nm
          multi-body bonded interactions  (-rdd)   0.740 nm
  atoms separated by up to 5 constraints  (-rcon)  0.740 nm

When dynamic load balancing gets turned on, these settings will change to:
The maximum number of communication pulses is: X 3 Y 2
The minimum size for domain decomposition cells is 0.592 nm
The requested allowed shrink of DD cells (option -dds) is: 0.80
The allowed shrink of domain decomposition cells is: X 0.80 Y 0.35
The maximum allowed distance for charge groups involved in interactions is:
                 non-bonded interactions           1.400 nm
            two-body bonded interactions  (-rdd)   1.400 nm
          multi-body bonded interactions  (-rdd)   0.592 nm
  atoms separated by up to 5 constraints  (-rcon)  0.592 nm

Making 2D domain decomposition grid 8 x 3 x 1, home cell index 0 0 0

Center of mass motion removal mode is Linear
We have the following groups for center of mass motion removal:
  0:  System

There are: 26705 Atoms
Charge group distribution at step 0: 388 376 377 499 430 369 540 555 371 560 592 448 555 648 537 433 609 586 376 396 419 360 363 366
Grid: 9 x 12 x 8 cells

Constraining the starting coordinates (step 0)

Constraining the coordinates at t0-dt (step 0)
RMS relative constraint deviation after constraining: 1.88e-06
Initial temperature: 300.382 K

Started mdrun on node 0 Wed Jun 10 12:14:30 2015

           Step           Time         Lambda
              0        0.00000        0.00000

   Energies (kJ/mol)
           Bond            U-B    Proper Dih.  Improper Dih.      CMAP Dih.
    6.27022e+02    2.48185e+03    3.77454e+03    1.11784e+02   -1.17129e+03
          LJ-14     Coulomb-14        LJ (SR)  Disper. corr.   Coulomb (SR)
    2.04380e+03    3.38386e+04    4.30828e+04   -1.40710e+03   -4.28422e+05
   -6.83205e+04    8.42293e-04   -4.13361e+05    6.88197e+04   -3.44541e+05
    Temperature Pres. DC (bar) Pressure (bar)   Constr. rmsd
    3.00443e+02   -8.65894e+01   -4.15615e+03    3.00736e-06

	<====  A V E R A G E S  ====>

	Statistics over 5001 steps using 51 frames

   Energies (kJ/mol)
           Bond            U-B    Proper Dih.  Improper Dih.      CMAP Dih.
    2.51147e+03    7.56118e+03    4.46812e+03    4.44887e+02   -1.11160e+03
          LJ-14     Coulomb-14        LJ (SR)  Disper. corr.   Coulomb (SR)
    2.20942e+03    3.34739e+04    4.36202e+04   -1.43705e+03   -3.86678e+05
   Coul. recip. Position Rest.      Potential    Kinetic En.   Total Energy
   -6.91150e+04    1.05444e+03   -3.62998e+05    6.84556e+04   -2.94543e+05
    Temperature Pres. DC (bar) Pressure (bar)   Constr. rmsd
    2.98854e+02   -9.03157e+01   -6.91227e+01    0.00000e+00

          Box-X          Box-Y          Box-Z
    7.20270e+00    7.20270e+00    5.09308e+00

   Total Virial (kJ/mol)
    2.32824e+04   -1.54745e+02   -5.42310e+02
   -1.59384e+02    2.36719e+04    2.53510e+02
   -5.42208e+02    2.58957e+02    2.31948e+04

   Pressure (bar)
   -4.97894e+01    1.84705e+01    6.41307e+01
    1.90492e+01   -1.04834e+02   -3.02044e+01
    6.41150e+01   -3.08887e+01   -5.27450e+01

      T-Protein  T-non-Protein
    2.98473e+02    2.98921e+02
