Input Parameters:
   integrator           = md
   nsteps               = 10000
   init-step            = 0
   cutoff-scheme        = Verlet
   ns_type              = Grid
   nstlist              = 20
   ndelta               = 2
   nstcomm              = 1000
   comm-mode            = Linear
   nstlog               = 500
   nstxout              = 0
   nstvout              = 0
   nstfout              = 0
   nstcalcenergy        = 100
   nstenergy            = 300
   nstxtcout            = 500
   init-t               = 0
   delta-t              = 0.002
   xtcprec              = 1000
   fourierspacing       = 0.12
   nkx                  = 64
   nky                  = 64
   nkz                  = 64
   pme-order            = 4
   ewald-rtol           = 1e-05
   ewald-geometry       = 0
   epsilon-surface      = 0
   optimize-fft         = TRUE
   ePBC                 = xyz
   bPeriodicMols        = FALSE
   bContinuation        = FALSE
   bShakeSOR            = FALSE
   etc                  = Nose-Hoover
   bPrintNHChains       = FALSE
   nsttcouple           = 20
   epc                  = Parrinello-Rahman
   epctype              = Isotropic
   nstpcouple           = 20
   tau-p                = 2.5
   ref-p (3x3):
      ref-p[    0]={ 1.00000e+00,  0.00000e+00,  0.00000e+00}
      ref-p[    1]={ 0.00000e+00,  1.00000e+00,  0.00000e+00}
      ref-p[    2]={ 0.00000e+00,  0.00000e+00,  1.00000e+00}
   compress (3x3):
      compress[    0]={ 4.50000e-05,  0.00000e+00,  0.00000e+00}
      compress[    1]={ 0.00000e+00,  4.50000e-05,  0.00000e+00}
      compress[    2]={ 0.00000e+00,  0.00000e+00,  4.50000e-05}
   refcoord-scaling     = No
   posres-com (3):
      posres-com[0]= 0.00000e+00
      posres-com[1]= 0.00000e+00
      posres-com[2]= 0.00000e+00
   posres-comB (3):
      posres-comB[0]= 0.00000e+00
      posres-comB[1]= 0.00000e+00
      posres-comB[2]= 0.00000e+00
   verlet-buffer-drift  = 0.005
   rlist                = 1.22
   rlistlong            = 1.22
   nstcalclr            = 20
   rtpi                 = 0.05
   coulombtype          = PME-Switch
   coulomb-modifier     = Potential-shift
   rcoulomb-switch      = 0
   rcoulomb             = 1.2
   vdwtype              = Cut-off
   vdw-modifier         = Potential-shift
   rvdw-switch          = 1
   rvdw                 = 1.2
   epsilon-r            = 1
   epsilon-rf           = 1
   tabext               = 1
   implicit-solvent     = No
   gb-algorithm         = Still
   gb-epsilon-solvent   = 80
   nstgbradii           = 1
   rgbradii             = 1
   gb-saltconc          = 0
   gb-obc-alpha         = 1
   gb-obc-beta          = 0.8
   gb-obc-gamma         = 4.85
   gb-dielectric-offset = 0.009
   sa-algorithm         = Ace-approximation
   sa-surface-tension   = 2.05016
   DispCorr             = EnerPres
   bSimTemp             = FALSE
   free-energy          = no
   nwall                = 0
   wall-type            = 9-3
   wall-atomtype[0]     = -1
   wall-atomtype[1]     = -1
   wall-density[0]      = 0
   wall-density[1]      = 0
   wall-ewald-zfac      = 3
   pull                 = no
   rotation             = FALSE
   disre                = No
   disre-weighting      = Conservative
   disre-mixed          = FALSE
   dr-fc                = 1000
   dr-tau               = 0
   nstdisreout          = 100
   orires-fc            = 0
   orires-tau           = 0
   nstorireout          = 100
   dihre-fc             = 0
   em-stepsize          = 0.01
   em-tol               = 10
   niter                = 20
   fc-stepsize          = 0
   nstcgsteep           = 1000
   nbfgscorr            = 10
   ConstAlg             = Lincs
   shake-tol            = 0.0001
   lincs-order          = 4
   lincs-warnangle      = 30
   lincs-iter           = 1
   bd-fric              = 0
   ld-seed              = 1993
   cos-accel            = 0
   deform (3x3):
      deform[    0]={ 0.00000e+00,  0.00000e+00,  0.00000e+00}
      deform[    1]={ 0.00000e+00,  0.00000e+00,  0.00000e+00}
      deform[    2]={ 0.00000e+00,  0.00000e+00,  0.00000e+00}
   adress               = FALSE
   userint1             = 0
   userint2             = 0
   userint3             = 0
   userint4             = 0
   userreal1            = 0
   userreal2            = 0
   userreal3            = 0
   userreal4            = 0
grpopts:
   nrdf:     8337.55     46761.5
   ref-t:         300         300
   tau-t:           1           1
anneal:          No          No
ann-npoints:           0           0
   acc:	           0           0           0
   nfreeze:           N           N           N
   energygrp-flags[  0]: 0
   efield-x:
      n = 0
   efield-xt:
      n = 0
   efield-y:
      n = 0
   efield-yt:
      n = 0
   efield-z:
      n = 0
   efield-zt:
      n = 0
   bQMMM                = FALSE
   QMconstraints        = 0
   QMMMscheme           = 0
   scalefactor          = 1
qm-opts:
   ngQM                 = 0
Using 1 MPI thread
Using 16 OpenMP threads

Detecting CPU-specific acceleration.
Present hardware specification:
Vendor: GenuineIntel
Brand:  Intel(R) Xeon(R) CPU E5-2630 v3 @ 2.40GHz
Family:  6  Model: 63  Stepping:  2
Features: apic avx avx2 clfsh cmov cx8 cx16 f16c fma htt lahf_lm mmx msr nonstop_tsc pcid pclmuldq pdcm pdpe1gb popcnt pse rdrnd rdtscp sse2 sse3 sse4.1 sse4.2 ssse3 tdt x2apic
Acceleration most likely to fit this hardware: AVX_256
Acceleration selected at GROMACS compile time: AVX_256

1 GPU detected:
  #0: NVIDIA GeForce GTX 980, compute cap.: 5.2, ECC:  no, stat: compatible

1 GPU auto-selected for this run.
Mapping of GPU to the 1 PP rank in this node: #0

Will do PME sum in reciprocal space.

Will do ordinary reciprocal space Ewald sum.
Using a Gaussian width (1/beta) of 0.384195 nm for Ewald
Cut-off's:   NS: 1.22   Coulomb: 1.2   LJ: 1.2
Long Range LJ corr.: <C6> 3.3596e-04
System total charge: 0.000
Generated table with 1110 data points for Ewald-Switch.
Tabscale = 500 points/nm
Generated table with 1110 data points for LJ6.
Tabscale = 500 points/nm
Generated table with 1110 data points for LJ12.
Tabscale = 500 points/nm
Generated table with 1110 data points for 1-4 COUL.
Tabscale = 500 points/nm
Generated table with 1110 data points for 1-4 LJ6.
Tabscale = 500 points/nm
Generated table with 1110 data points for 1-4 LJ12.
Tabscale = 500 points/nm

Using CUDA 8x8 non-bonded kernels

Potential shift: LJ r^-12: 0.112 r^-6 0.335, Ewald 1.000e-05
Initialized non-bonded Ewald correction tables, spacing: 7.82e-04 size: 1536

Removing pbc first time
Pinning threads with an auto-selected logical core stride of 2

Initializing LINear Constraint Solver

The number of constraints is 1685

Center of mass motion removal mode is Linear
We have the following groups for center of mass motion removal:
  0:  System
There are: 26705 Atoms

Constraining the starting coordinates (step 0)

Constraining the coordinates at t0-dt (step 0)
RMS relative constraint deviation after constraining: 3.03e-06
Initial temperature: 300.832 K

Started mdrun on node 0 Wed Dec 31 17:00:00 1969
           Step           Time         Lambda
              0        0.00000        0.00000

   Energies (kJ/mol)
           Bond            U-B    Proper Dih.  Improper Dih.      CMAP Dih.
    2.50180e+03    7.85719e+03    4.42318e+03    4.58090e+02   -1.17132e+03
          LJ-14     Coulomb-14        LJ (SR)  Disper. corr.   Coulomb (SR)
    2.21545e+03    3.34651e+04    4.34046e+04   -2.19785e+03   -4.51235e+05
    1.37011e+03   -3.58908e+05    7.02910e+04   -2.88618e+05    3.06866e+02
   -1.38301e+02    3.33727e+02    3.41103e-06

	<====  A V E R A G E S  ====>

	Statistics over 10001 steps using 101 frames

   Energies (kJ/mol)
           Bond            U-B    Proper Dih.  Improper Dih.      CMAP Dih.
    2.64579e+03    7.76919e+03    4.42708e+03    4.58870e+02   -1.15655e+03
          LJ-14     Coulomb-14        LJ (SR)  Disper. corr.   Coulomb (SR)
    2.14541e+03    3.34565e+04    4.27915e+04   -2.18575e+03   -4.48794e+05
   Coul. recip.      Potential    Kinetic En.   Total Energy    Temperature
    1.32716e+03   -3.57115e+05    6.87275e+04   -2.88388e+05    3.00041e+02
 Pres. DC (bar) Pressure (bar)   Constr. rmsd
   -1.36784e+02   -1.39176e+01    0.00000e+00

          Box-X          Box-Y          Box-Z
    7.21457e+00    7.21457e+00    5.10147e+00

   Total Virial (kJ/mol)
    2.30350e+04    3.05945e+01    4.12946e+01
   -6.81302e+01    2.29310e+04   -4.91091e+02
    1.10574e+02   -4.76851e+00    2.30999e+04

   Pressure (bar)
   -9.52354e+00   -4.67190e+00   -5.17150e+00
    7.68904e+00   -5.97913e+00    5.78247e+01
   -1.38184e+01   -2.98856e+00   -2.62501e+01

      T-Protein  T-non-Protein
    3.00256e+02    3.00003e+02
